LTspice 24.1.7 for Windows
Circuit: E:\guipreMK1\mosfetpre2.net
Start Time: Thu Apr 17 04:52:16 2025
solver = Normal
Maximum thread count: 16
tnom = 27
temp = 25
method = modified trap
Early termination of direct N-R iteration.
Direct Newton iteration failed to find .op point.  (Use ".option noopiter" to skip.)
Starting Gmin stepping
Gmin = 10
vernier = 0.5
vernier = 0.25
vernier = 0.125
Gmin = 6.49
vernier = 0.0625
vernier = 0.03125
vernier = 0.015625
vernier = 0.0078125
vernier = 0.00390625
Gmin = 6.67976
vernier = 0.00195312
vernier = 0.000976562
vernier = 0.000488281
Gmin = 6.66755
Gmin = 0
Gmin stepping failed

Starting source stepping with srcstepmethod=0
Source Step = 3.0303%
Source Step = 33.3333%
Source Step = 63.6364%
Source Step = 93.9394%
Source stepping succeeded in finding the operating point.

Total elapsed time: 0.325 seconds.

Files loaded:
E:\guipreMK1\mosfetpre2.net
C:\Users\david\AppData\Local\LTspice\lib\cmp\standard.dio
C:\Users\david\AppData\Local\LTspice\lib\cmp\standard.bjt
C:\Users\david\AppData\Local\LTspice\lib\cmp\standard.jft
C:\Users\david\AppData\Local\LTspice\lib\cmp\standard.mos
E:\guipreMK1\custom.lib
E:\guipreMK1\NE5532.sub

